* C:\Program Files (x86)\LTC\LTspiceIV\Draft1.asc
V1 Va 0 4
R1 Va Vb 100
R2 Vb Vc 150
R3 Vb 0 250
R4 Vc 0 80
.backanno
.end
